Circuit: *load regulation

Instance "m:u1:_max15006a_m3:1": Length shorter than recommended for a level 1 MOSFET.
Instance "m:u1:_max15006a_m2:1": Length shorter than recommended for a level 1 MOSFET.
Instance "m:u1:_max15006a_m1:1": Length shorter than recommended for a level 1 MOSFET.
Instance "m:u1:_max15006a_m1:1": Width narrower than recommended for a level 1 MOSFET.
Instance "m:u1:_max15006a_m4:1": Length shorter than recommended for a level 1 MOSFET.
Ignoring empty pin current: Ix(u1:2)
Ignoring empty pin current: Ix(u1:3)
Ignoring empty pin current: Ix(u1:4)
Ignoring empty pin current: Ix(u1:6)
Ignoring empty pin current: Ix(u1:7)

Date: Sat Oct 22 19:58:22 2022
Total elapsed time: 0.077 seconds.

tnom = 27
temp = 27
method = trap
totiter = 132
traniter = 0
tranpoints = 0
accept = 0
rejected = 0
matrix size = 83
fillins = 34
solver = Normal

